<?xml version="1.0" encoding="UTF-8"?>

<!-- generated on 2025-07-29 13:36:41 by Eclipse SUMO netconvert Version 1.23.1
<netconvertConfiguration xmlns:xsi="http://www.w3.org/2001/XMLSchema-instance" xsi:noNamespaceSchemaLocation="http://sumo.dlr.de/xsd/netconvertConfiguration.xsd">

    <input>
        <sumo-net-file value="rectangle.net.xml"/>
    </input>

    <output>
        <output-file value="resized_rectangle.net.xml"/>
    </output>

    <projection>
        <proj.scale value="2.0"/>
    </projection>

    <processing>
        <geometry.min-radius.fix.railways value="false"/>
        <geometry.avoid-overlap value="false"/>
        <geometry.max-grade.fix value="false"/>
        <offset.disable-normalization value="true"/>
        <lefthand value="0"/>
    </processing>

    <junctions>
        <no-turnarounds value="true"/>
        <junctions.corner-detail value="5"/>
        <junctions.limit-turn-speed value="5.50"/>
        <rectangular-lane-cut value="0"/>
    </junctions>

    <pedestrian>
        <walkingareas value="0"/>
    </pedestrian>

</netconvertConfiguration>
-->

<net version="1.20" junctionCornerDetail="5" limitTurnSpeed="5.50" avoidOverlap="0" xmlns:xsi="http://www.w3.org/2001/XMLSchema-instance" xsi:noNamespaceSchemaLocation="http://sumo.dlr.de/xsd/net_file.xsd">

    <location netOffset="0.00,0.00" convBoundary="-41.96,-493.10,648.74,-123.08" origBoundary="-10000000000.00,-10000000000.00,10000000000.00,10000000000.00" projParameter="!"/>

    <edge id=":J1_0" function="internal">
        <lane id=":J1_0_0" index="0" speed="6.56" length="9.19" shape="313.50,-124.68 315.95,-125.04 317.70,-126.13 318.75,-127.94 319.11,-130.48"/>
    </edge>
    <edge id=":J1_1" function="internal">
        <lane id=":J1_1_0" index="0" speed="13.89" length="11.70" shape="313.50,-124.68 316.75,-124.70 319.36,-124.87 321.92,-125.35 325.01,-126.31"/>
    </edge>
    <edge id=":J11_0" function="internal">
        <lane id=":J11_0_0" index="0" speed="4.42" length="1.03" shape="320.65,-494.39 320.90,-494.56 321.09,-494.66 321.30,-494.69 321.60,-494.70"/>
    </edge>
    <edge id=":J2_0" function="internal">
        <lane id=":J2_0_0" index="0" speed="6.52" length="9.02" shape="143.53,-241.67 145.98,-242.02 147.73,-243.07 148.78,-244.81 149.15,-247.26"/>
    </edge>
    <edge id=":J2_1" function="internal">
        <lane id=":J2_1_0" index="0" speed="13.89" length="11.15" shape="143.53,-241.67 154.68,-241.67"/>
    </edge>
    <edge id=":J2_2" function="internal">
        <lane id=":J2_2_0" index="0" speed="13.89" length="11.15" shape="149.09,-236.11 149.15,-247.26"/>
    </edge>
    <edge id=":J2_3" function="internal">
        <lane id=":J2_3_0" index="0" speed="6.50" length="4.07" shape="149.09,-236.11 149.45,-238.55 150.27,-239.92"/>
    </edge>
    <edge id=":J2_4" function="internal">
        <lane id=":J2_4_0" index="0" speed="6.50" length="4.93" shape="150.27,-239.92 150.50,-240.29 152.24,-241.33 154.68,-241.67"/>
    </edge>
    <edge id=":J3_0" function="internal">
        <lane id=":J3_0_0" index="0" speed="6.51" length="9.03" shape="313.58,-241.39 316.03,-241.74 317.78,-242.79 318.84,-244.53 319.19,-246.98"/>
    </edge>
    <edge id=":J3_1" function="internal">
        <lane id=":J3_1_0" index="0" speed="13.89" length="11.20" shape="313.58,-241.39 324.78,-241.38"/>
    </edge>
    <edge id=":J3_2" function="internal">
        <lane id=":J3_2_0" index="0" speed="13.89" length="11.20" shape="319.18,-235.78 319.19,-246.98"/>
    </edge>
    <edge id=":J3_3" function="internal">
        <lane id=":J3_3_0" index="0" speed="6.51" length="4.11" shape="319.18,-235.78 319.53,-238.23 320.37,-239.63"/>
    </edge>
    <edge id=":J3_4" function="internal">
        <lane id=":J3_4_0" index="0" speed="6.51" length="4.92" shape="320.37,-239.63 320.58,-239.98 322.33,-241.03 324.78,-241.38"/>
    </edge>
    <edge id=":J4_0" function="internal">
        <lane id=":J4_0_0" index="0" speed="6.51" length="9.03" shape="477.90,-241.27 480.35,-241.61 482.10,-242.66 483.15,-244.41 483.51,-246.86"/>
    </edge>
    <edge id=":J4_1" function="internal">
        <lane id=":J4_1_0" index="0" speed="13.89" length="11.20" shape="477.90,-241.27 489.10,-241.26"/>
    </edge>
    <edge id=":J5_0" function="internal">
        <lane id=":J5_0_0" index="0" speed="8.09" length="14.52" shape="634.90,-241.28 640.13,-241.63 643.86,-242.68 646.10,-244.42 646.86,-246.87"/>
    </edge>
    <edge id=":J5_1" function="internal">
        <lane id=":J5_1_0" index="0" speed="9.75" length="15.91" shape="635.67,-236.83 640.56,-238.95 644.05,-241.33 646.15,-243.97 646.86,-246.87"/>
    </edge>
    <edge id=":J7_0" function="internal">
        <lane id=":J7_0_0" index="0" speed="13.89" length="17.12" shape="144.17,-365.03 158.18,-374.86"/>
    </edge>
    <edge id=":J7_1" function="internal">
        <lane id=":J7_1_0" index="0" speed="13.89" length="16.57" shape="144.17,-365.03 147.68,-366.91 151.72,-368.36 155.92,-369.29 159.90,-369.62"/>
    </edge>
    <edge id=":J7_2" function="internal">
        <lane id=":J7_2_0" index="0" speed="11.64" length="4.00" shape="149.94,-361.91 150.47,-365.31 150.71,-365.81"/>
    </edge>
    <edge id=":J7_3" function="internal">
        <lane id=":J7_3_0" index="0" speed="8.05" length="4.15" shape="149.94,-361.91 150.58,-365.28 151.02,-365.85"/>
    </edge>
    <edge id=":J7_4" function="internal">
        <lane id=":J7_4_0" index="0" speed="11.64" length="11.90" shape="150.71,-365.81 152.02,-368.61 154.59,-371.79 158.18,-374.86"/>
    </edge>
    <edge id=":J7_5" function="internal">
        <lane id=":J7_5_0" index="0" speed="8.05" length="10.13" shape="151.02,-365.85 152.46,-367.69 155.56,-369.14 159.90,-369.62"/>
    </edge>
    <edge id=":J8_0" function="internal">
        <lane id=":J8_0_0" index="0" speed="13.89" length="11.15" shape="313.80,-369.66 324.95,-369.68"/>
    </edge>
    <edge id=":J8_1" function="internal">
        <lane id=":J8_1_0" index="0" speed="6.51" length="4.09" shape="319.37,-364.08 319.73,-366.52 320.56,-367.92"/>
    </edge>
    <edge id=":J8_2" function="internal">
        <lane id=":J8_2_0" index="0" speed="6.51" length="4.91" shape="320.56,-367.92 320.77,-368.27 322.51,-369.32 324.95,-369.68"/>
    </edge>
    <edge id=":J9_0" function="internal">
        <lane id=":J9_0_0" index="0" speed="6.52" length="9.02" shape="478.01,-370.31 480.46,-370.67 482.21,-371.72 483.26,-373.48 483.61,-375.92"/>
    </edge>
    <edge id=":J9_1" function="internal">
        <lane id=":J9_1_0" index="0" speed="13.89" length="11.18" shape="478.01,-370.31 489.19,-370.36"/>
    </edge>
    <edge id=":J9_2" function="internal">
        <lane id=":J9_2_0" index="0" speed="13.89" length="11.18" shape="483.60,-364.75 483.61,-375.92"/>
    </edge>
    <edge id=":J9_3" function="internal">
        <lane id=":J9_3_0" index="0" speed="6.52" length="4.09" shape="483.60,-364.75 483.95,-367.19 484.78,-368.58"/>
    </edge>
    <edge id=":J9_4" function="internal">
        <lane id=":J9_4_0" index="0" speed="6.52" length="4.93" shape="484.78,-368.58 485.00,-368.94 486.74,-370.00 489.19,-370.36"/>
    </edge>

    <edge id="E0" from="J0" to="J1" priority="-1">
        <lane id="E0_0" index="0" speed="13.89" length="161.48" shape="152.02,-124.70 313.50,-124.68"/>
    </edge>
    <edge id="E1" from="J0" to="J2" priority="-1" shape="150.52,-123.10 150.70,-240.08">
        <lane id="E1_0" index="0" speed="13.89" length="108.30" shape="148.93,-127.80 149.09,-236.11"/>
    </edge>
    <edge id="E10" from="J3" to="J8" priority="-1">
        <lane id="E10_0" index="0" speed="13.89" length="117.10" shape="319.19,-246.98 319.37,-364.08"/>
    </edge>
    <edge id="E11" from="J8" to="J9" priority="-1">
        <lane id="E11_0" index="0" speed="13.89" length="153.06" shape="324.95,-369.68 478.01,-370.31"/>
    </edge>
    <edge id="E12" from="J4" to="J9" priority="-1">
        <lane id="E12_0" index="0" speed="13.89" length="117.88" shape="483.51,-246.86 483.60,-364.75"/>
    </edge>
    <edge id="E13" from="J9" to="J10" priority="-1">
        <lane id="E13_0" index="0" speed="13.89" length="154.84" shape="489.19,-370.36 644.03,-371.10"/>
    </edge>
    <edge id="E14" from="J5" to="J10" priority="-1">
        <lane id="E14_0" index="0" speed="13.89" length="121.14" shape="646.86,-246.87 647.14,-368.00"/>
    </edge>
    <edge id="E15" from="J6" to="J7" priority="-1">
        <lane id="E15_0" index="0" speed="13.89" length="217.07" shape="-36.75,-245.09 144.17,-365.03"/>
    </edge>
    <edge id="E16" from="J7" to="J11" priority="-1">
        <lane id="E16_0" index="0" speed="13.89" length="201.70" shape="158.18,-374.86 320.65,-494.39"/>
    </edge>
    <edge id="E17" from="J9" to="J12" priority="-1">
        <lane id="E17_0" index="0" speed="13.89" length="115.68" shape="483.61,-375.92 483.72,-491.60"/>
    </edge>
    <edge id="E18" from="J11" to="J12" priority="-1">
        <lane id="E18_0" index="0" speed="13.89" length="159.02" shape="321.60,-494.70 480.62,-494.70"/>
    </edge>
    <edge id="E2" from="J2" to="J3" priority="-1" shape="150.70,-240.08 320.78,-239.78">
        <lane id="E2_0" index="0" speed="13.89" length="158.90" shape="154.68,-241.67 313.58,-241.39"/>
    </edge>
    <edge id="E3" from="J1" to="J3" priority="-1">
        <lane id="E3_0" index="0" speed="13.89" length="105.30" shape="319.11,-130.48 319.18,-235.78"/>
    </edge>
    <edge id="E4" from="J3" to="J4" priority="-1">
        <lane id="E4_0" index="0" speed="13.89" length="153.12" shape="324.78,-241.38 477.90,-241.27"/>
    </edge>
    <edge id="E5" from="J4" to="J5" priority="-1">
        <lane id="E5_0" index="0" speed="13.89" length="145.80" shape="489.10,-241.26 634.90,-241.28"/>
    </edge>
    <edge id="E6" from="J1" to="J5" priority="-1">
        <lane id="E6_0" index="0" speed="13.89" length="329.74" shape="325.01,-126.31 635.67,-236.83"/>
    </edge>
    <edge id="E7" from="J6" to="J2" priority="-1">
        <lane id="E7_0" index="0" speed="13.89" length="179.15" shape="-35.62,-241.33 143.53,-241.67"/>
    </edge>
    <edge id="E8" from="J2" to="J7" priority="-1" shape="150.70,-240.08 151.58,-368.02">
        <lane id="E8_0" index="0" speed="13.89" length="114.65" shape="149.15,-247.26 149.94,-361.91"/>
    </edge>
    <edge id="E9" from="J7" to="J8" priority="-1">
        <lane id="E9_0" index="0" speed="13.89" length="153.90" shape="159.90,-369.62 313.80,-369.66"/>
    </edge>

    <junction id="J0" type="dead_end" x="150.52" y="-123.10" incLanes="" intLanes="" shape="152.02,-123.10 152.02,-126.30 151.19,-126.47 150.90,-126.67 150.69,-126.97 150.57,-127.34 150.53,-127.80 147.33,-127.80 147.85,-125.19 148.50,-124.28 149.41,-123.62 150.59,-123.23"/>
    <junction id="J1" type="priority" x="320.70" y="-123.08" incLanes="E0_0" intLanes=":J1_0_0 :J1_1_0" shape="325.54,-124.80 324.47,-127.82 322.38,-127.52 321.64,-127.81 321.12,-128.40 320.81,-129.29 320.71,-130.48 317.51,-130.48 317.06,-128.15 316.50,-127.33 315.73,-126.75 314.73,-126.40 313.50,-126.28 313.50,-123.08 316.11,-123.07 318.05,-123.07 319.65,-123.18 321.23,-123.45 323.08,-123.97">
        <request index="0" response="00" foes="00" cont="0"/>
        <request index="1" response="00" foes="00" cont="0"/>
    </junction>
    <junction id="J10" type="dead_end" x="648.74" y="-369.52" incLanes="E13_0 E14_0" intLanes="" shape="644.02,-372.70 644.04,-369.50 644.87,-369.33 645.16,-369.13 645.37,-368.84 645.50,-368.46 645.54,-368.00 648.74,-368.00 648.22,-370.62 647.56,-371.53 646.65,-372.19 645.47,-372.57"/>
    <junction id="J11" type="priority" x="321.60" y="-493.10" incLanes="E16_0" intLanes=":J11_0_0" shape="321.60,-493.10 321.60,-496.30 320.84,-496.27 320.58,-496.21 320.33,-496.10 320.05,-495.93 319.70,-495.68">
        <request index="0" response="0" foes="0" cont="0"/>
    </junction>
    <junction id="J12" type="dead_end" x="485.32" y="-493.10" incLanes="E18_0 E17_0" intLanes="" shape="480.62,-496.30 480.62,-493.10 481.45,-492.93 481.74,-492.73 481.95,-492.43 482.08,-492.06 482.12,-491.60 485.32,-491.60 484.80,-494.21 484.15,-495.12 483.23,-495.78 482.06,-496.17"/>
    <junction id="J2" type="priority" x="152.26" y="-240.08" incLanes="E7_0 E1_0" intLanes=":J2_0_0 :J2_1_0 :J2_2_0 :J2_4_0" shape="154.68,-240.07 154.69,-243.27 152.49,-243.72 151.72,-244.27 151.17,-245.04 150.85,-246.03 150.75,-247.25 147.55,-247.27 147.09,-245.05 146.53,-244.27 145.75,-243.71 144.75,-243.38 143.53,-243.27 143.53,-240.07 145.74,-239.63 146.51,-239.08 147.06,-238.31 147.39,-237.32 147.49,-236.11 150.69,-236.10 151.14,-238.31 151.69,-239.08 152.47,-239.64 153.46,-239.96">
        <request index="0" response="0000" foes="0100" cont="0"/>
        <request index="1" response="0000" foes="1100" cont="0"/>
        <request index="2" response="0011" foes="0011" cont="0"/>
        <request index="3" response="0010" foes="0010" cont="1"/>
    </junction>
    <junction id="J3" type="priority" x="320.78" y="-239.78" incLanes="E2_0 E3_0" intLanes=":J3_0_0 :J3_1_0 :J3_2_0 :J3_4_0" shape="324.78,-239.78 324.78,-242.98 322.56,-243.42 321.79,-243.98 321.23,-244.76 320.90,-245.76 320.79,-246.98 317.59,-246.99 317.14,-244.76 316.59,-243.99 315.81,-243.43 314.81,-243.10 313.59,-242.99 313.58,-239.79 315.80,-239.34 316.58,-238.79 317.13,-238.01 317.47,-237.01 317.58,-235.78 320.78,-235.78 321.22,-238.00 321.78,-238.78 322.56,-239.33 323.56,-239.67">
        <request index="0" response="0000" foes="0100" cont="0"/>
        <request index="1" response="0000" foes="1100" cont="0"/>
        <request index="2" response="0011" foes="0011" cont="0"/>
        <request index="3" response="0010" foes="0010" cont="1"/>
    </junction>
    <junction id="J4" type="priority" x="485.10" y="-239.66" incLanes="E4_0" intLanes=":J4_0_0 :J4_1_0" shape="489.10,-239.66 489.10,-242.86 486.88,-243.30 486.10,-243.86 485.55,-244.64 485.22,-245.64 485.11,-246.86 481.91,-246.86 481.46,-244.64 480.90,-243.86 480.13,-243.31 479.12,-242.98 477.90,-242.87 477.90,-239.67">
        <request index="0" response="00" foes="00" cont="0"/>
        <request index="1" response="00" foes="00" cont="0"/>
    </junction>
    <junction id="J5" type="priority" x="648.44" y="-239.68" incLanes="E5_0 E6_0" intLanes=":J5_0_0 :J5_1_0" shape="648.46,-246.86 645.26,-246.87 644.10,-244.65 642.66,-243.88 640.65,-243.32 638.06,-242.99 634.90,-242.88 634.90,-239.68 635.13,-238.34 636.20,-235.33 639.94,-236.86 643.00,-238.54 645.38,-240.39 647.09,-242.39 648.11,-244.55">
        <request index="0" response="00" foes="10" cont="0"/>
        <request index="1" response="01" foes="01" cont="0"/>
    </junction>
    <junction id="J6" type="dead_end" x="-41.96" y="-239.72" incLanes="" intLanes="" shape="-35.61,-239.73 -35.62,-242.93 -35.87,-243.76 -37.64,-246.43 -40.39,-244.37 -41.91,-242.70 -42.20,-241.39 -41.24,-240.47 -39.05,-239.91"/>
    <junction id="J7" type="priority" x="151.58" y="-368.02" incLanes="E15_0 E8_0" intLanes=":J7_0_0 :J7_1_0 :J7_4_0 :J7_5_0" shape="159.90,-368.02 159.90,-371.22 158.05,-371.48 157.72,-371.81 157.79,-372.27 158.26,-372.86 159.13,-373.57 157.23,-376.15 143.29,-366.36 145.05,-363.69 146.89,-364.47 147.53,-364.35 147.99,-363.88 148.25,-363.07 148.34,-361.92 151.54,-361.90 152.49,-365.30 153.65,-366.49 155.27,-367.34 157.36,-367.85">
        <request index="0" response="0000" foes="0100" cont="0"/>
        <request index="1" response="0000" foes="1100" cont="0"/>
        <request index="2" response="0011" foes="0011" cont="1"/>
        <request index="3" response="0010" foes="0010" cont="1"/>
    </junction>
    <junction id="J8" type="priority" x="320.98" y="-368.06" incLanes="E9_0 E10_0" intLanes=":J8_0_0 :J8_2_0" shape="324.96,-368.08 324.94,-371.28 313.80,-371.26 313.80,-368.06 316.01,-367.62 316.78,-367.06 317.34,-366.29 317.67,-365.30 317.77,-364.08 320.97,-364.08 321.42,-366.29 321.97,-367.07 322.75,-367.62 323.74,-367.96">
        <request index="0" response="00" foes="10" cont="0"/>
        <request index="1" response="01" foes="01" cont="1"/>
    </junction>
    <junction id="J9" type="priority" x="485.20" y="-368.74" incLanes="E11_0 E12_0" intLanes=":J9_0_0 :J9_1_0 :J9_2_0 :J9_4_0" shape="489.20,-368.76 489.18,-371.96 486.97,-372.39 486.20,-372.94 485.65,-373.71 485.32,-374.70 485.21,-375.92 482.01,-375.92 481.56,-373.70 481.01,-372.92 480.23,-372.36 479.23,-372.03 478.01,-371.91 478.02,-368.71 480.23,-368.28 481.00,-367.73 481.56,-366.96 481.89,-365.96 482.00,-364.75 485.20,-364.74 485.64,-366.97 486.20,-367.75 486.98,-368.30 487.98,-368.64">
        <request index="0" response="0000" foes="0100" cont="0"/>
        <request index="1" response="0000" foes="1100" cont="0"/>
        <request index="2" response="0011" foes="0011" cont="0"/>
        <request index="3" response="0010" foes="0010" cont="1"/>
    </junction>

    <junction id=":J2_4_0" type="internal" x="150.27" y="-239.92" incLanes=":J2_3_0 E7_0" intLanes=":J2_1_0"/>
    <junction id=":J3_4_0" type="internal" x="320.37" y="-239.63" incLanes=":J3_3_0 E2_0" intLanes=":J3_1_0"/>
    <junction id=":J7_4_0" type="internal" x="150.71" y="-365.81" incLanes=":J7_2_0 E15_0" intLanes=":J7_0_0 :J7_1_0"/>
    <junction id=":J7_5_0" type="internal" x="151.02" y="-365.85" incLanes=":J7_3_0 E15_0" intLanes=":J7_1_0"/>
    <junction id=":J8_2_0" type="internal" x="320.56" y="-367.92" incLanes=":J8_1_0 E9_0" intLanes=":J8_0_0"/>
    <junction id=":J9_4_0" type="internal" x="484.78" y="-368.58" incLanes=":J9_3_0 E11_0" intLanes=":J9_1_0"/>

    <connection from="E0" to="E3" fromLane="0" toLane="0" via=":J1_0_0" dir="r" state="M"/>
    <connection from="E0" to="E6" fromLane="0" toLane="0" via=":J1_1_0" dir="s" state="M"/>
    <connection from="E1" to="E8" fromLane="0" toLane="0" via=":J2_2_0" dir="s" state="m"/>
    <connection from="E1" to="E2" fromLane="0" toLane="0" via=":J2_3_0" dir="l" state="m"/>
    <connection from="E10" to="E11" fromLane="0" toLane="0" via=":J8_1_0" dir="l" state="m"/>
    <connection from="E11" to="E17" fromLane="0" toLane="0" via=":J9_0_0" dir="r" state="M"/>
    <connection from="E11" to="E13" fromLane="0" toLane="0" via=":J9_1_0" dir="s" state="M"/>
    <connection from="E12" to="E17" fromLane="0" toLane="0" via=":J9_2_0" dir="s" state="m"/>
    <connection from="E12" to="E13" fromLane="0" toLane="0" via=":J9_3_0" dir="l" state="m"/>
    <connection from="E15" to="E16" fromLane="0" toLane="0" via=":J7_0_0" dir="s" state="M"/>
    <connection from="E15" to="E9" fromLane="0" toLane="0" via=":J7_1_0" dir="L" state="M"/>
    <connection from="E16" to="E18" fromLane="0" toLane="0" via=":J11_0_0" dir="s" state="M"/>
    <connection from="E2" to="E10" fromLane="0" toLane="0" via=":J3_0_0" dir="r" state="M"/>
    <connection from="E2" to="E4" fromLane="0" toLane="0" via=":J3_1_0" dir="s" state="M"/>
    <connection from="E3" to="E10" fromLane="0" toLane="0" via=":J3_2_0" dir="s" state="m"/>
    <connection from="E3" to="E4" fromLane="0" toLane="0" via=":J3_3_0" dir="l" state="m"/>
    <connection from="E4" to="E12" fromLane="0" toLane="0" via=":J4_0_0" dir="r" state="M"/>
    <connection from="E4" to="E5" fromLane="0" toLane="0" via=":J4_1_0" dir="s" state="M"/>
    <connection from="E5" to="E14" fromLane="0" toLane="0" via=":J5_0_0" dir="r" state="M"/>
    <connection from="E6" to="E14" fromLane="0" toLane="0" via=":J5_1_0" dir="r" state="m"/>
    <connection from="E7" to="E8" fromLane="0" toLane="0" via=":J2_0_0" dir="r" state="M"/>
    <connection from="E7" to="E2" fromLane="0" toLane="0" via=":J2_1_0" dir="s" state="M"/>
    <connection from="E8" to="E16" fromLane="0" toLane="0" via=":J7_2_0" dir="L" state="m"/>
    <connection from="E8" to="E9" fromLane="0" toLane="0" via=":J7_3_0" dir="l" state="m"/>
    <connection from="E9" to="E11" fromLane="0" toLane="0" via=":J8_0_0" dir="s" state="M"/>

    <connection from=":J1_0" to="E3" fromLane="0" toLane="0" dir="r" state="M"/>
    <connection from=":J1_1" to="E6" fromLane="0" toLane="0" dir="s" state="M"/>
    <connection from=":J11_0" to="E18" fromLane="0" toLane="0" dir="s" state="M"/>
    <connection from=":J2_0" to="E8" fromLane="0" toLane="0" dir="r" state="M"/>
    <connection from=":J2_1" to="E2" fromLane="0" toLane="0" dir="s" state="M"/>
    <connection from=":J2_2" to="E8" fromLane="0" toLane="0" dir="s" state="M"/>
    <connection from=":J2_3" to="E2" fromLane="0" toLane="0" via=":J2_4_0" dir="l" state="m"/>
    <connection from=":J2_4" to="E2" fromLane="0" toLane="0" dir="l" state="M"/>
    <connection from=":J3_0" to="E10" fromLane="0" toLane="0" dir="r" state="M"/>
    <connection from=":J3_1" to="E4" fromLane="0" toLane="0" dir="s" state="M"/>
    <connection from=":J3_2" to="E10" fromLane="0" toLane="0" dir="s" state="M"/>
    <connection from=":J3_3" to="E4" fromLane="0" toLane="0" via=":J3_4_0" dir="l" state="m"/>
    <connection from=":J3_4" to="E4" fromLane="0" toLane="0" dir="l" state="M"/>
    <connection from=":J4_0" to="E12" fromLane="0" toLane="0" dir="r" state="M"/>
    <connection from=":J4_1" to="E5" fromLane="0" toLane="0" dir="s" state="M"/>
    <connection from=":J5_0" to="E14" fromLane="0" toLane="0" dir="r" state="M"/>
    <connection from=":J5_1" to="E14" fromLane="0" toLane="0" dir="r" state="M"/>
    <connection from=":J7_0" to="E16" fromLane="0" toLane="0" dir="s" state="M"/>
    <connection from=":J7_1" to="E9" fromLane="0" toLane="0" dir="L" state="M"/>
    <connection from=":J7_2" to="E16" fromLane="0" toLane="0" via=":J7_4_0" dir="L" state="m"/>
    <connection from=":J7_4" to="E16" fromLane="0" toLane="0" dir="L" state="M"/>
    <connection from=":J7_3" to="E9" fromLane="0" toLane="0" via=":J7_5_0" dir="l" state="m"/>
    <connection from=":J7_5" to="E9" fromLane="0" toLane="0" dir="l" state="M"/>
    <connection from=":J8_0" to="E11" fromLane="0" toLane="0" dir="s" state="M"/>
    <connection from=":J8_1" to="E11" fromLane="0" toLane="0" via=":J8_2_0" dir="l" state="m"/>
    <connection from=":J8_2" to="E11" fromLane="0" toLane="0" dir="l" state="M"/>
    <connection from=":J9_0" to="E17" fromLane="0" toLane="0" dir="r" state="M"/>
    <connection from=":J9_1" to="E13" fromLane="0" toLane="0" dir="s" state="M"/>
    <connection from=":J9_2" to="E17" fromLane="0" toLane="0" dir="s" state="M"/>
    <connection from=":J9_3" to="E13" fromLane="0" toLane="0" via=":J9_4_0" dir="l" state="m"/>
    <connection from=":J9_4" to="E13" fromLane="0" toLane="0" dir="l" state="M"/>

</net>
